!!>>>>>>>>>>>>>>>>>>>>>>>>>>>>>>>>>>>>>>>>>>>>>>>>>>>>>>>>>>>>>>>>>>>>>>
!! NEMO/OCE :   Configuration namelist_cfg used to overwrite defaults value defined in namelist_ref
!!>>>>>>>>>>>>>>>>>>>>>>>>>>>>>>>>>>>>>>>>>>>>>>>>>>>>>>>>>>>>>>>>>>>>>>
!! NEMO/OCE  :  1 - Domain & run manager (namrun, namcfg, namdom, namzgr, namzgr_sco )
!!              2 - diagnostics      (namnc4)
!!              3 - miscellaneous    (nammpp, namctl)
!!
!! namelist skeleton : egrep -E '(^/ *$|^! *$|^ *$|&nam.*|!---.*|!! .*|!!==.*|!!>>>.*)' namelist_ref > namelist_skl
!!>>>>>>>>>>>>>>>>>>>>>>>>>>>>>>>>>>>>>>>>>>>>>>>>>>>>>>>>>>>>>>>>>>>>>>
!-----------------------------------------------------------------------
&namrun        !   parameters of the run
!-----------------------------------------------------------------------
/
!-----------------------------------------------------------------------
&namdom        !   space and time domain (bathymetry, mesh, timestep)
!-----------------------------------------------------------------------
   nn_bathy    =    1      !  compute analyticaly (=0) or read (=1) the bathymetry file
                           !  or compute (2) from external bathymetry
   cn_fcoord   =  'coordinates.nc'             ! external coordinates file (jphgr_msh = 0)
   cn_topo     =  'bathy_meter.nc'             ! external topo file (nn_bathy =2)
   cn_bath     =  'Bathymetry'                 ! topo name in file  (nn_bathy =2)
   cn_topolvl  =  'bathy_level.nc           '  ! external topo file (nn_bathy =1)
   cn_fisfd    =  'isf_draft_meter.nc'         ! external isf draft (nn_bathy =1 and ln_isfcav = .true.)
   cn_bath     =  'Bathymetry_isf'             ! topo name in file  (nn_bathy =2)
   cn_bathlvl  =  'Bathy_level'                ! lvl name in file   (nn_bathy =1)
   cn_visfd    =  'isf_draft'                  ! isf draft variable (nn_bathy =1 and ln_isfcav = .true.)
   cn_lon      =  'nav_lon'                    ! lon  name in file  (nn_bathy =2)
   cn_lat      =  'nav_lat'                    ! lat  name in file  (nn_bathy =2)
   rn_bathy    =    0.     !  value of the bathymetry. if (=0) bottom flat at jpkm1
   nn_msh      =    1      !  create (=1) a mesh file or not (=0)
   rn_hmin     =   25.     !  min depth of the ocean (>0) or min number of ocean level (<0)
   rn_e3zps_min=   10.     !  partial step thickness is set larger than the minimum of
   rn_e3zps_rat=    0.2    !  rn_e3zps_min and rn_e3zps_rat*e3t, with 0<rn_e3zps_rat<1

   ppsur       =   -3958.951371276829  !  ORCA r4, r2 and r05 coefficients
   ppa0        =     103.9530096000000 ! (default coefficients)
   ppa1        =       2.415951269000000   !
   ppkth       =      15.35101370000000    !
   ppacr       =       7.0             !
   ppdzmin     =  999999.0             !  Minimum vertical spacing
   pphmax      =  999999.0             !  Maximum depth
   ppa2        =     100.7609285000000 !  Double tanh function parameters
   ppkth2      =      48.02989372000000    !
   ppacr2      =      13.00000000000   !
   ldbletanh = .TRUE.
/
!-----------------------------------------------------------------------
&namcfg        !   parameters of the configuration
!-----------------------------------------------------------------------
   !
   ln_e3_dep   = .true.    ! =T : e3=dk[depth] in discret sens.
   !                       !      ===>>> will become the only possibility in v4.0
   !                       ! =F : e3 analytical derivative of depth function
   !                       !      only there for backward compatibility test with v3.6
   !                       !
   cp_cfg      =  "orca"   !  name of the configuration
   jp_cfg      =      36   !  resolution of the configuration
   jpidta      =   12960   !  1st lateral dimension ( >= jpi )
   jpjdta      =   10842   !  2nd    "         "    ( >= jpj )
   jpkdta      =      75   !  number of levels      ( >= jpk )
   jpiglo      =   12960   !  1st dimension of global domain --> i =jpidta
   jpjglo      =   10842   !  2nd    -                  -    --> j  =jpjdta
   jperio      =       4   !  lateral cond. type (between 0 and 6)
   ln_use_jattr = .false.  !  use (T) the file attribute: open_ocean_jstart, if present
                           !  in netcdf input files, as the start j-row for reading
   ln_domclo = .false.     ! computation of closed sea masks (see namclo)

/
!-----------------------------------------------------------------------
&namzgr        !   vertical coordinate                                  (default: NO selection)
!-----------------------------------------------------------------------
!-----------------------------------------------------------------------
   ln_zco      = .false.   !  z-coordinate - full    steps
   ln_zps      = .true.    !  z-coordinate - partial steps
   ln_sco      = .false.   !  s- or hybrid z-s-coordinate
   ln_isfcav   = .true.    !  ice shelf cavity             (T: see namzgr_isf)
/
!-----------------------------------------------------------------------
&namzgr_isf    !   isf cavity geometry definition
!-----------------------------------------------------------------------
   rn_isfdep_min    = 10.         ! minimum isf draft tickness (if lower, isf draft set to this value)
   rn_glhw_min      = 1.e-3       ! minimum water column thickness to define the grounding line
   rn_isfhw_min     = 100.        ! minimum water column thickness in the cavity once the grounding line defined.
   ln_isfchannel    = .true.      ! remove channel (based on 2d mask build from isfdraft-bathy)
   ln_isfconnect    = .true.      ! force connection under the ice shelf (based on 2d mask build from isfdraft-bathy)
      nn_kisfmax       = 999         ! limiter in level on the previous condition. (if change larger than this number, get back to value before we enforce the connection)
      rn_zisfmax       = 7000.       ! limiter in m     on the previous condition. (if change larger than this number, get back to value before we enforce the connection)
   ln_isfcheminey   = .true.      ! close cheminey
   ln_isfsubgl      = .true.      ! remove subglacial lake created by the remapping process
      rn_isfsubgllon   =    0.0      !  longitude of the seed to determine the open ocean
      rn_isfsubgllat   =    0.0      !  latitude  of the seed to determine the open ocean
/
!-----------------------------------------------------------------------
&namzgr_sco    !   s-coordinate or hybrid z-s-coordinate                (default F)
!-----------------------------------------------------------------------
/
!-----------------------------------------------------------------------
&namclo ! (closed sea : need ln_domclo = .true. in namcfg)
!-----------------------------------------------------------------------
/
!-----------------------------------------------------------------------
&namlbc        !   lateral momentum boundary condition                  (default: NO selection)
!-----------------------------------------------------------------------
/
!-----------------------------------------------------------------------
&namagrif      !  AGRIF zoom                                            ("key_agrif")
!-----------------------------------------------------------------------
/
!-----------------------------------------------------------------------
&namnc4        !   netcdf4 chunking and compression settings            ("key_netcdf4")
!-----------------------------------------------------------------------
/
!-----------------------------------------------------------------------
&nammpp        !   Massively Parallel Processing                        ("key_mpp_mpi")
!-----------------------------------------------------------------------
jpni = 32
jpnj = 32
/
