!!>>>>>>>>>>>>>>>>>>>>>>>>>>>>>>>>>>>>>>>>>>>>>>>>>>>>>>>>>>>>>>>>>>>>>>
!! NEMO/OCE :   Reference namelist_ref                                !!
!!>>>>>>>>>>>>>>>>>>>>>>>>>>>>>>>>>>>>>>>>>>>>>>>>>>>>>>>>>>>>>>>>>>>>>>
!! NEMO/OCE  :  1 - Domain & run manager (namrun, namcfg, namdom, namtsd, namcrs, namc1d, namc1d_uvd)
!! namelists    2 - Surface boundary (namsbc, namsbc_flx, namsbc_blk, namsbc_cpl,
!!                                    namsbc_sas, namtra_qsr, namsbc_rnf,
!!                                    namisf, namsbc_apr, 
!!                                    namsbc_ssr, namsbc_wave, namberg)
!!              3 - lateral boundary (namlbc, namagrif, nambdy, nambdy_tide)
!!              4 - top/bot boundary (namdrg, namdrg_top, namdrg_bot, nambbc, nambbl)
!!              5 - Tracer           (nameos, namtra_adv, namtra_ldf, namtra_eiv, namtra_dmp)
!!              6 - dynamics         (namdyn_adv, namdyn_vor, namdyn_hpg, namdyn_spg, namdyn_ldf)
!!              7 - Vertical physics (namzdf, namzdf_ric, namzdf_tke, namzdf_gls, namzdf_iwm)
!!              8 - diagnostics      (namnc4, namtrd, namspr, namflo, namhsb)
!!              9 - Obs & Assim      (namobs, nam_asminc)
!!             10 - miscellaneous    (nammpp, namctl, namsto)
!!>>>>>>>>>>>>>>>>>>>>>>>>>>>>>>>>>>>>>>>>>>>>>>>>>>>>>>>>>>>>>>>>>>>>>>

!!======================================================================
!!              ***  Domain & Run management namelists  ***           !!
!!                                                                    !!
!!   namrun       parameters of the run
!!   namdom       space and time domain
!!   namcfg       parameters of the configuration                       (default: user defined GYRE)
!!   namwad       Wetting and drying                                    (default: OFF)
!!   namtsd       data: temperature & salinity                          (default: OFF)
!!   namcrs       coarsened grid (for outputs and/or TOP)               (ln_crs =T)
!!   namc1d       1D configuration options                              ("key_c1d")
!!   namc1d_dyndmp 1D newtonian damping applied on currents             ("key_c1d")
!!   namc1d_uvd   1D data (currents)                                    ("key_c1d")
!!======================================================================
!
!-----------------------------------------------------------------------
&namrun        !   parameters of the run
!-----------------------------------------------------------------------
   nn_no       =   1  !  job number (no more used...)
   cn_exp      =  "ORCA36-T431"!  experience name
   nn_it000    =  1   !  first time step
   nn_itend    =  720   !  last  time step (std 5475)
   nn_date0    =  20121002   !  date at nit_0000 (format yyyymmdd) used if ln_rstart=F or (ln_rstart=T and nn_rstctl=0 or 1)
   nn_leapy    =       1   !  Leap year calendar (1) or not (0)
   ln_rstart   = .FALSE.   !  start from rest (F) or from a restart file (T)
      ln_1st_euler = .false.  !  =T force a start with forward time step (ln_rstart=T)
      nn_rstctl    =    0     !  restart control ==> activated only if ln_rstart=T
      !                          !    = 0 nn_date0 read in namelist ; nn_it000 : read in namelist
      !                          !    = 1 nn_date0 read in namelist ; nn_it000 : check consistancy between namelist and restart
      !                          !    = 2 nn_date0 read in restart  ; nn_it000 : check consistancy between namelist and restart
      cn_ocerst_in    = "ORCA36-T431_00000000_restart"   !  suffix of ocean restart name (input)
      cn_ocerst_indir = "/ec/res6/scratch/ar5/ORCA36-T431-RST" !  directory from which to read input ocean restarts
      cn_ocerst_out   = "restart"      !  suffix of ocean restart name (output)
      cn_ocerst_outdir = "/ec/res6/scratch/ar5/ORCA36-T431-RST"!  directory in which to write output ocean restarts
   nn_istate   =       0   !  output the initial state (1) or not (0)
   ln_mskland  = .true.    ! mask land points in NetCDF outputs
   ln_cfmeta   = .false.   !  output additional data to netCDF files required for compliance with the CF metadata standard
   ln_xios_read = .false.  !  use XIOS to read restart file (only for a single file restart)
   nn_wxios = 0      !  use XIOS to write restart file 0 - no, 1 - single file output, 2 - multiple file output
/
!-----------------------------------------------------------------------
&namdom        !   time and space domain
!-----------------------------------------------------------------------
   rn_Dt       = 60.    !  time step for the dynamics and tracer
   rn_atfp     =    0.05   !  asselin time filter parameter
   !
   ln_meshmask = .false.   ! =T create a mesh file
/
!-----------------------------------------------------------------------
&namcfg        !   parameters of the configuration                      (default: use namusr_def in namelist_cfg)
!-----------------------------------------------------------------------
   ln_read_cfg = .true.      !  (=T) read the domain configuration file
      !                      !  (=F) user defined configuration           (F => create/check namusr_def)
      cn_domcfg = "./eORCA_R36_domcfg_v3.1.nc"  ! domain configuration filename
      !
/
!-----------------------------------------------------------------------
&namtile        !   parameters of the tiling
!-----------------------------------------------------------------------
/
!-----------------------------------------------------------------------
&namclo        !   parameters of the closed sea (cs) behavior                (default: OFF)
!-----------------------------------------------------------------------
/
!-----------------------------------------------------------------------
&namtsd        !    Temperature & Salinity Data  (init/dmp)             (default: OFF)
!-----------------------------------------------------------------------
   !                       ! =T  read T-S fields for:
   ln_tsd_init = .true.          !  ocean initialisation
   ln_tsd_dmp  = .false.         !  T-S restoring   (see namtra_dmp)

   cn_dir      = './'      !  root directory for the T-S data location
   !___________!_________________________!___________________!___________!_____________!________!___________!__________________!__________!_______________!
   !           !  file name              ! frequency (hours) ! variable  ! time interp.!  clim  ! 'yearly'/ ! weights filename ! rotation ! land/sea mask !
   !           !                         !  (if <0  months)  !   name    !   (logical) !  (T/F) ! 'monthly' !                  ! pairing  !    filename   !
   sn_tem  = 'eORCA_R36_potential_temperature_WOA13_A5B2_Reg1L75_clim.nc'  ,  -1  ,'votemper' ,   .true.    , .true. , 'yearly' , '' ,   ''     ,    ''
   sn_sal  = 'eORCA_R36_practical_salinity_WOA13_A5B2_Reg1L75_clim.nc'  ,  -1  ,'vosaline' ,   .true.    , .true. , 'yearly' , '' ,   ''     ,    ''

/
!-----------------------------------------------------------------------
&namwad        !   Wetting and Drying (WaD)                             (default: OFF)
!-----------------------------------------------------------------------
/
!-----------------------------------------------------------------------
&namcrs        !   coarsened grid (for outputs and/or TOP)              (ln_crs =T)
!-----------------------------------------------------------------------
/
!-----------------------------------------------------------------------
&namc1d        !   1D configuration options                             ("key_c1d" default: PAPA station)
!-----------------------------------------------------------------------
/
!-----------------------------------------------------------------------
&namc1d_dyndmp !   U & V newtonian damping                              ("key_c1d" default: OFF)
!-----------------------------------------------------------------------
/
!-----------------------------------------------------------------------
&namc1d_uvd    !   data: U & V currents                                 ("key_c1d" default: OFF)
!-----------------------------------------------------------------------
/

!!======================================================================
!!            ***  Surface Boundary Condition namelists  ***          !!
!!                                                                    !!
!!   namsbc          surface boundary condition manager                 (default: NO selection)
!!   namsbc_flx      flux               formulation                     (ln_flx     =T)
!!   namsbc_blk      Bulk formulae formulation                          (ln_blk     =T)
!!   namsbc_cpl      CouPLed            formulation                     ("key_oasis3" )
!!   namsbc_sas      Stand-Alone Surface module                         (SAS_SRC  only)
!!   namsbc_iif      Ice-IF: use observed ice cover                     (nn_ice = 1   )
!!   namtra_qsr      penetrative solar radiation                        (ln_traqsr  =T)
!!   namsbc_ssr      sea surface restoring term (for T and/or S)        (ln_ssr     =T)
!!   namsbc_rnf      river runoffs                                      (ln_rnf     =T)
!!   namsbc_apr      Atmospheric Pressure                               (ln_apr_dyn =T)
!!   namsbc_wave     external fields from wave model                    (ln_wave    =T)
!!   namberg         iceberg floats                                     (ln_icebergs=T)
!!   namsbc_fwb      freshwater-budget adjustment                       (nn_fwb > 0)
!!======================================================================
!
!-----------------------------------------------------------------------
&namsbc        !   Surface Boundary Condition manager                   (default: NO selection)
!-----------------------------------------------------------------------
   nn_fsbc     = 1         !  frequency of SBC module call
      !                    !  (control sea-ice & iceberg model call)
                     ! Type of air-sea fluxes
   ln_usr      = .false.   !  user defined formulation                  (T => check usrdef_sbc)
   ln_flx      = .false.   !  flux formulation                          (T => fill namsbc_flx )
   ln_blk      = .true.    !  Bulk formulation                          (T => fill namsbc_blk )
   ln_abl      = .false.   !  ABL  formulation                          (T => fill namsbc_abl )
      !              ! Type of coupling (Ocean/Ice/Atmosphere) :
   ln_cpl      = .false.   !  atmosphere coupled   formulation          ( requires key_oasis3 )
   ln_mixcpl   = .false.   !  forced-coupled mixed formulation          ( requires key_oasis3 )
   nn_components = 0       !  configuration of the opa-sas OASIS coupling
      !                    !  =0 no opa-sas OASIS coupling: default single executable config.
      !                    !  =1 opa-sas OASIS coupling: multi executable config., OCE component
      !                    !  =2 opa-sas OASIS coupling: multi executable config., SAS component
                     ! Sea-ice :
   nn_ice      = 2         !  =0 no ice boundary condition
      !                    !  =1 use observed ice-cover                 (  => fill namsbc_iif )
      !                    !  =2 or 3 for SI3 and CICE, respectively
   ln_ice_embd = .false.   !  =T embedded sea-ice (pressure + mass and salt exchanges)
      !                    !  =F levitating ice (no pressure, mass and salt exchanges)
                     ! Misc. options of sbc :
   ln_traqsr   = .true.    !  Light penetration in the ocean            (T => fill namtra_qsr)
   ln_dm2dc    = .false.   !  daily mean to diurnal cycle on short wave
   ln_ssr      = .false.   !  Sea Surface Restoring on T and/or S       (T => fill namsbc_ssr)
   nn_fwb      = 0         !  FreshWater Budget: =0 unchecked
      !                    !     =1 global mean of e-p-r set to zero at each time step
      !                    !     =2 annual global mean of e-p-r set to zero
   ln_rnf      = .true.    !  runoffs                                   (T => fill namsbc_rnf)
   ln_apr_dyn  = .true.    !  Patm gradient added in ocean & ice Eqs.   (T => fill namsbc_apr )
   ln_wave     = .false.   !  Activate coupling with wave  (T => fill namsbc_wave)
   nn_lsm      = 0         !  =0 land/sea mask for input fields is not applied (keep empty land/sea mask filename field) ,
                           !  =1:n number of iterations of land/sea mask application for input fields (fill land/sea mask filename field)
/
!-----------------------------------------------------------------------
&namsbc_flx    !   surface boundary condition : flux formulation        (ln_flx =T)
!-----------------------------------------------------------------------
/
!-----------------------------------------------------------------------
&namsbc_blk    !   namsbc_blk  generic Bulk formula          (ln_blk =T)
!-----------------------------------------------------------------------
   !                    !  bulk algorithm :
   ln_NCAR      = .false.    ! "NCAR"      algorithm   (Large and Yeager 2008)
   ln_COARE_3p0 = .false.    ! "COARE 3.0" algorithm   (Fairall et al. 2003)
   ln_COARE_3p6 = .false.    ! "COARE 3.6" algorithm   (Edson et al. 2013)
   ln_ECMWF     = .true.     ! "ECMWF"     algorithm   (IFS cycle 45r1)
   ln_ANDREAS   = .false.    ! "ANDREAS"   algorithm   (Andreas et al. 2015)
      rn_zqt       =  2.     !  Air temperature & humidity reference height (m)
      rn_zu        = 10.     !  Wind vector reference height (m)
   !
   rn_pfac    = 1.          !  multipl. factor for precipitation (total & snow)
   rn_efac    = 1.          !  multipl. factor for evaporation (0. or 1.)
   !
   ln_crt_fbk = .false.     !  Add surface current feedback to the wind stress (Renault et al. 2020, doi: 10.1029/2019MS001715)
         rn_stau_a = -2.9e-3   !     Alpha from eq. 10: Stau = Alpha * Wnd + Beta
         rn_stau_b =  8.0e-3   !     Beta 
   !
   ln_humi_sph = .true.  !  humidity "sn_humi" is specific humidity  [kg/kg]
   ln_humi_dpt = .false. !  humidity "sn_humi" is dew-point temperature [K]
   ln_humi_rlh = .false. !  humidity "sn_humi" is relative humidity     [%]
   ln_tair_pot = .false. !  air temperature read in "sn_tair" is already POTENTIAL TEMPERATURE, NOT ABSOLUTE (ECMWF => ln_tair_pot=.false.)
   !!   
   !! Bulk transfer coefficients over sea-ice: (relevant IF: nn_ice >=1 )
   ln_Cx_ice_cst = .true.     ! use constant ice-air bulk transfer coefficients (value given below)
      rn_Cd_i  = 1.4e-3       ! sea-ice drag coefficient
      rn_Ce_i  = 1.4e-3       !    "    sublimation coefficient
      rn_Ch_i  = 1.4e-3       !    "    sensible heat flux coefficient
   ln_Cx_ice_AN05  = .false.  !  (Andreas et al. 2005)
   ln_Cx_ice_LU12  = .false.  !  (Lupkes et al. 2012)
   ln_Cx_ice_LG15  = .false. !cbr .true.   !  (Lupkes & Gryanik 2015)
   !
   !___________!_________________________!___________________!___________!_____________!________!___________!______________________________________!__________!_______________!
   !           !  file name              ! frequency (hours) ! variable  ! time interp.!  clim  ! 'yearly'/ !       weights filename               ! rotation ! land/sea mask !
   !           !                         !  (if <0  months)  !   name    !   (logical) !  (T/F) ! 'monthly' !                                      ! pairing  !    filename   !
   sn_wndi     = 'ECMWF_eORCA36_BULKU10M'         ,         1         , 'sowinu10' ,  .true.     , .false.,  'daily'  , '', ''    , ''
   sn_wndj     = 'ECMWF_eORCA36_BULKV10M'         ,         1         , 'sowinv10' ,  .true.     , .false.,  'daily'  , '', ''    , ''
   sn_qsr      = 'ECMWF_eORCA36_FLUXSSRD'         ,         1         , 'sosudosw' ,  .false.    , .false.,  'daily'  , '', ''       , ''
   sn_qlw      = 'ECMWF_eORCA36_FLUXSTRD'         ,         1         , 'sosudolw' ,  .false.    , .false.,  'daily'  , '', ''       , ''
   sn_tair     = 'ECMWF_eORCA36_BULKTAIR'         ,         1         , 'sotemair' ,  .true.     , .false.,  'daily'  , '', ''       , ''
   sn_humi     = 'ECMWF_eORCA36_BULKHUMI'         ,         1         , 'sohumspe' ,  .true.     , .false.,  'daily'  , '', ''       , ''
   sn_prec     = 'ECMWF_eORCA36_FLUXPRE'          ,         1         , 'sowaprec' ,  .true.     , .false.,  'daily'  , '', ''       , ''
   sn_snow     = 'ECMWF_eORCA36_SNOWFALL'         ,         1         , 'sosnowfa' ,  .false.    , .false.,  'daily'  , '', ''       , ''
   sn_slp      = 'ECMWF_eORCA36_PRES'             ,         1         , 'somslpre' ,  .true.     , .false.,  'daily'  , '', ''       , ''

   cn_dir      = './'   !  root directory for the location of the bulk files

/
!-----------------------------------------------------------------------
&namsbc_abl    !   Atmospheric Boundary Layer formulation           (ln_abl = T)
!-----------------------------------------------------------------------
/
!-----------------------------------------------------------------------
&namsbc_cpl    !   coupled ocean/atmosphere model                       ("key_oasis3")
!-----------------------------------------------------------------------
/
!-----------------------------------------------------------------------
&namsbc_sas    !   Stand-Alone Surface module: ocean data               (SAS_SRC  only)
!-----------------------------------------------------------------------
/
!-----------------------------------------------------------------------
&namsbc_iif    !   Ice-IF : use observed ice cover                      (nn_ice = 1)
!-----------------------------------------------------------------------
/
!-----------------------------------------------------------------------
&namtra_qsr    !   penetrative solar radiation                          (ln_traqsr =T)
!-----------------------------------------------------------------------
   !                       !  type of penetration                        (default: NO selection)
   ln_qsr_rgb  = .true.      !  RGB light penetration (Red-Green-Blue)
   ln_qsr_2bd  = .false.      !  2BD light penetration (two bands)
   ln_qsr_bio  = .false.      !  bio-model light penetration
   !                       !  RGB & 2BD choices:
   rn_abs      =   0.58       !  RGB & 2BD: fraction absorbed in the very near surface
   rn_si0      =   0.35       !  RGB & 2BD: shortess depth of extinction
   nn_chldta   =   0       !  RGB : Chl data (=1) or cst value (=0)
   rn_si1      =   23.0       !  2BD : longest depth of extinction
/
!-----------------------------------------------------------------------
&namsbc_ssr    !   surface boundary condition : sea surface restoring   (ln_ssr =T)
!-----------------------------------------------------------------------
/
!-----------------------------------------------------------------------
&namsbc_rnf    !   runoffs                                              (ln_rnf =T)
!-----------------------------------------------------------------------
   ln_rnf_mouth = .true.    !  specific treatment at rivers mouths

   cn_dir       = './'   !  root directory for the runoff data location
   !___________!_________________________!___________________!___________!_____________!________!___________!__________________!__________!_______________!
   !           !  file name              ! frequency (hours) ! variable  ! time interp.!  clim  ! 'yearly'/ ! weights filename ! rotation ! land/sea mask !
   !           !                         !  (if <0  months)  !   name    !   (logical) !  (T/F) ! 'monthly' !                  ! pairing  !    filename   !
   sn_rnf      = 'eORCA_R36_runoff_v3.3.nc'      ,        -1         , 'sornficb',   .true.    , .true. , 'yearly'  , ''               , ''       , ''
   sn_cnf      = 'eORCA_R36_runoff_v3.3.nc'      ,         0         , 'socoefr' ,   .false.   , .true. , 'yearly'  , ''               , ''       , ''
/
!-----------------------------------------------------------------------
&namsbc_apr    !   Atmospheric pressure used as ocean forcing           (ln_apr_dyn =T)
!-----------------------------------------------------------------------
   rn_pref     = 101000.   !  reference atmospheric pressure   [N/m2]/
   ln_ref_apr  = .false.   !  ref. pressure: global mean Patm (T) or a constant (F)
   ln_apr_obc  = .false.   !  inverse barometer added to OBC ssh data

   cn_dir = './'      !  root directory for the Patm data location
   !___________!_________________________!___________________!___________!_____________!________!___________!__________________!__________!_______________!
   !           !  file name              ! frequency (hours) ! variable  ! time interp.!  clim  ! 'yearly'/ ! weights filename ! rotation ! land/sea mask !
   !           !                         !  (if <0  months)  !   name    !   (logical) !  (T/F) ! 'monthly' !                  ! pairing  !    filename   !
   sn_apr      = 'ECMWF_eORCA36_PRES'    ,         1         ,'somslpre' ,  .true.     , .false.,  'daily'  , '', ''       , ''
/
!-----------------------------------------------------------------------
&namisf       !  Top boundary layer (ISF)                               (default: OFF)
!-----------------------------------------------------------------------
   !
   ! ---------------- ice shelf melt formulation -------------------------------
   !
   ln_isf = .true.            ! activate ice shelf module
      ln_isfdebug = .false.      ! add debug print in ISF code (global min/max/sum of specific variable)
      cn_isfdir   = './'         ! directory for all ice shelf input file
      !
      ! ---------------- cavities opened -------------------------------
      !
      ln_isfcav_mlt = .true.    ! ice shelf melting into the cavity (need ln_isfcav = .true. in /ec/res6/scratch/ar5/ORCA36-IN//eORCA_R36_domcfg_v3.1.nc.nc)
         cn_isfcav_mlt = 'spe'   ! ice shelf melting formulation (spe/2eq/3eq/oasis)
         !                       ! spe = fwfisf is read from a forcing field
         !                       ! 2eq = ISOMIP  like: 2 equations formulation (Hunter et al., 2006 for a short description)
         !                       ! 3eq = ISOMIP+ like: 3 equations formulation (Asay-Davis et al., 2016 for a short description)
         !                       ! oasis = fwfisf is given by oasis and pattern by file sn_isfcav_fwf
         !___________!_____________!___________________!___________!_____________!_________!___________!__________!__________!_______________!
         !           !  file name  ! frequency (hours) ! variable  ! time interp.!  clim   ! 'yearly'/ ! weights  ! rotation ! land/sea mask !
         !           !             !  (if <0  months)  !   name    !  (logical)  !  (T/F)  ! 'monthly' ! filename ! pairing  ! filename      !
         sn_isfcav_fwf = 'eORCA_R36_isfmelt_v3.1.nc'   ,      -12.      , 'sofwfisf' ,  .true.     , .true.  , 'yearly'  ,    ''    ,   ''     ,    ''
/
!-----------------------------------------------------------------------
&namsbc_wave   ! External fields from wave model                        (ln_wave=T)
!-----------------------------------------------------------------------
/
!-----------------------------------------------------------------------
&namberg       !   iceberg parameters                                   (default: OFF)
!-----------------------------------------------------------------------
/
!-----------------------------------------------------------------------
&namsbc_fwb    !   freshwater-budget adjustment                         (nn_fwb > 0)
!-----------------------------------------------------------------------
/

!!======================================================================
!!               ***  Lateral boundary condition  ***                 !!
!!                                                                    !!
!!   namlbc        lateral momentum boundary condition                  (default: NO selection)
!!   namagrif      agrif nested grid   (read by child model only)       ("key_agrif")
!!   nam_tide      Tidal forcing                                        (default: OFF)
!!   nambdy        Unstructured open boundaries                         (default: OFF)
!!   nambdy_dta    Unstructured open boundaries - external data         (see  nambdy)
!!   nambdy_tide   tidal forcing at open boundaries                     (default: OFF)
!!======================================================================
!
!-----------------------------------------------------------------------
&namlbc        !   lateral momentum boundary condition                  (default: NO selection)
!-----------------------------------------------------------------------
   !                       !  free slip  !   partial slip  !   no slip   ! strong slip
   rn_shlat    =      0.2  !  shlat = 0  !  0 < shlat < 2  !  shlat = 2  !  2 < shlat
/
!-----------------------------------------------------------------------
&namagrif      !  AGRIF zoom                                            ("key_agrif")
!-----------------------------------------------------------------------
/
!-----------------------------------------------------------------------
&nam_tide      !   tide parameters                                      (default: OFF)
!-----------------------------------------------------------------------
   ln_tide     = .false. ! Activate tides
/
!-----------------------------------------------------------------------
&nambdy        !  unstructured open boundaries                          (default: OFF)
!-----------------------------------------------------------------------
/
!-----------------------------------------------------------------------
&nambdy_dta    !  open boundaries - external data                       (see nam_bdy)
!-----------------------------------------------------------------------
/
!-----------------------------------------------------------------------
&nambdy_tide   !  tidal forcing at open boundaries                      (default: OFF)
!-----------------------------------------------------------------------
/

!!======================================================================
!!                ***  Top/Bottom boundary condition  ***             !!
!!                                                                    !!
!!   namdrg        top/bottom drag coefficient                          (default: NO selection)
!!   namdrg_top    top    friction                                      (ln_drg_OFF=F & ln_isfcav=T)
!!   namdrg_bot    bottom friction                                      (ln_drg_OFF=F)
!!   nambbc        bottom temperature boundary condition                (default: OFF)
!!   nambbl        bottom boundary layer scheme                         (default: OFF)
!!======================================================================
!
!-----------------------------------------------------------------------
&namdrg        !   top/bottom drag coefficient                          (default: NO selection)
!-----------------------------------------------------------------------
   ln_loglayer = .true.    !  logarithmic drag: Cd = vkarmn/log(z/z0) |U|
   !
   ln_drgimp   = .true.    !  implicit top/bottom friction flag
      ln_drgice_imp = .true. ! implicit ice-ocean drag
/
!-----------------------------------------------------------------------
&namdrg_top    !   TOP friction                                         (ln_drg_OFF =F & ln_isfcav=T)
!-----------------------------------------------------------------------
   rn_Cd0      =  1.0e-1   !  drag coefficient [-]
   rn_ke0      =  0.0      !  background kinetic energy  [m2/s2] (non-linear cases)
/
!-----------------------------------------------------------------------
&namdrg_bot    !   BOTTOM friction                                      (ln_drg_OFF =F)
!-----------------------------------------------------------------------
   rn_Cd0      =  1.0e-1   !  drag coefficient [-]
   rn_ke0      =  0.0      !  background kinetic energy  [m2/s2] (non-linear cases)
/
!-----------------------------------------------------------------------
&nambbc        !   bottom temperature boundary condition                (default: OFF)
!-----------------------------------------------------------------------
   ln_trabbc   = .false.  !  Apply a geothermal heating at the ocean bottom
/
!-----------------------------------------------------------------------
&nambbl        !   bottom boundary layer scheme                         (default: OFF)
!-----------------------------------------------------------------------
/

!!======================================================================
!!                        Tracer (T-S) namelists                      !!
!!                                                                    !!
!!   nameos        equation of state                                    (default: NO selection)
!!   namtra_adv    advection scheme                                     (default: NO selection)
!!   namtra_ldf    lateral diffusion scheme                             (default: NO selection)
!!   namtra_mle    mixed layer eddy param. (Fox-Kemper param.)          (default: OFF)
!!   namtra_eiv    eddy induced velocity param.                         (default: OFF)
!!   namtra_dmp    T & S newtonian damping                              (default: OFF)
!!======================================================================
!
!-----------------------------------------------------------------------
&nameos        !   ocean Equation Of Seawater                           (default: NO selection)
!-----------------------------------------------------------------------
   ln_eos80    = .true.          !  = Use EOS80
/
!-----------------------------------------------------------------------
&namtra_adv    !   advection scheme for tracer                          (default: NO selection)
!-----------------------------------------------------------------------